cartella/Line.dss
New "Line.ev-charge_line" bus1=rs_04kv_bb bus2=ev-charge_bb Seasons=1 Ratings=[400,] emergamps=600 x1=1E-009 x0=1E-009 normamps=400.0 B0=1E-009 length=0.05 r1=0 r0=0 B1=1E-009 enabled=true
New "Line.pros-ev_dc-line" linecode=dc-line bus1=pros1_dc-bb bus2=ev-fast_dc-bb Seasons=1 Ratings=[400,] emergamps=600 normamps=400.0 length=0.02 enabled=true
New "Line.pros_line" bus1=res_bb bus2=pros_bb Seasons=1 Ratings=[400,] emergamps=600 x1=1E-009 x0=1E-009 normamps=400.0 B0=1E-009 length=0.05 r1=0 r0=0 B1=1E-009 enabled=true
New "Line.res-wpg_line" bus1=sourcebus bus2=res-wpg_bb Seasons=1 Ratings=[400,] emergamps=600 x1=1E-009 x0=1E-009 normamps=400.0 B0=1E-009 length=2 r1=0 r0=0 B1=1E-009 enabled=true
New "Line.rs_line" bus1=sourcebus bus2=rs_20kv_bb Seasons=1 Ratings=[400,] emergamps=600 x1=1E-009 x0=1E-009 normamps=400.0 B0=1E-009 length=3 r1=0 r0=0 B1=1E-009 enabled=true
New "Line.ug_line" bus1=sourcebus bus2=ug_20kv_bb Seasons=1 Ratings=[400,] emergamps=600 x1=1E-009 x0=1E-009 normamps=400.0 B0=1E-009 length=3 r1=0 r0=0 B1=1E-009 enabled=true
New "Line.user_line" bus1=res_bb bus2=user_bb Seasons=1 Ratings=[400,] emergamps=600 x1=1E-009 x0=1E-009 normamps=400.0 B0=1E-009 length=0.1 r1=0 r0=0 B1=1E-009 enabled=true
New "Line.wpg_line" bus1=wpg_1_bb bus2=wpg_2_bb Seasons=1 Ratings=[400,] emergamps=600 x1=1E-009 x0=1E-009 normamps=400.0 B0=1E-009 length=1 r1=0 r0=0 B1=1E-009 enabled=true
